! =================================================!
! ANSYS APDL-scripts - Simple Bone
!     - Bone
!    -----------------------------------------
!       Geometry: [m]
!       Force:    [N]
!       Moment:   [Nm]
!       Pressure: [Pa]
! =================================================!

FINISH		 ! Make sure current ANSYS module is closed
/CLEAR,START ! Clear the ANSYS workspace 

! White background
/RGB,INDEX,100,100,100, 0   
/RGB,INDEX, 80, 80, 80,13   
/RGB,INDEX, 60, 60, 60,14   
/RGB,INDEX, 0, 0, 0,15  

!!!x = 127, y = -2841.6875

! =================================================!
! INPUT DATA - including material
! =================================================!

PI = 4*ATAN(1.0) ! Define variable PI as 3.1415...

! Remember to update title
*dim,TITLE_TEXT,string,20 ! Maximum 20 characters
/TITLE,%TITLE_TEXT(1)% Project 2

YOUNG_COMPACT = 19e3  ![N/mm^2]
YOUNG_SPONGY = 10e3   ![N/mm^2]
YOUNG_MARROW = 0.001e3 ![N/mm^2]
POISSON_COMPACT = 0.4         !E.g. steel: 0.3 [-]
POISSON_SPONGY = 0.2
POISSON_MARROW = 0.3
TIMO = 1000*YOUNG_COMPACT

WEIGHT = 400 ![N]

! =================================================!
! GEOMETRY DEFINITIONS - in preprocessor (/PREP7)
! =================================================!
/PREP7 ! Enter the preprocessor

!Keypoints
K,1,0,232.3125,0
K,2,-6.1733,-242.3125,0
K,3,1,233.3125,0
K,4,8,239.3125,0
K,5,12,241.3125,0
K,6,19,242.3125,0
K,7,22,242.3125,0
K,8,30,241.3125,0
K,9,35,240.3125,0
K,10,37,239.3125,0
K,11,42,235.3125,0
K,12,44,232.3125,0
K,13,45,229.3125,0
K,14,45,223.3125,0
K,15,46,218.3125,0
K,16,48,213.3125,0
K,17,52,209.3125,0
K,18,57,206.3125,0
K,19,59,205.3125,0
K,20,63,207.3125,0
! ... 112 like lines cut

!Lines
L,1,3 
L,3,4
L,4,5
L,5,6
L,6,7
L,7,8
L,8,9
L,9,10
L,10,11
L,11,12
L,12,13
L,13,14
L,14,15
L,15,16
L,16,17
L,17,18
L,18,19
L,19,20
L,20,21
L,21,22
! ... 112 like lines cut

AL,all      ! Area from all lines

!Keypoints Spongy
K,133,30.66676,240.3085,0
K,134,-40.7687,-226.2455,0
K,135,-42.7687,-226.2455,0
K,136,-47.7687,-228.2455,0
K,137,-54.7687,-234.2455,0
K,138,-55.7687,-235.2455,0
K,139,-57.7687,-236.2455,0
K,140,-64.7687,-237.2455,0
K,141,-66.7687,-237.2455,0
K,142,-68.7687,-237.2455,0
K,143,-73.7687,-236.2455,0
K,144,-76.7687,-234.2455,0
K,145,-78.7687,-232.2455,0
K,146,-79.7687,-229.2455,0
K,147,-79.7687,-226.2455,0
K,148,-80.7687,-223.2455,0
K,149,-82.7687,-220.2455,0
K,150,-84.7687,-217.2455,0
K,151,-85.7687,-214.2455,0
K,152,-85.7687,-212.2455,0
! ... 131 like lines cut


!Lines Spongy
L,134,135
L,135,136
L,136,137
L,137,138
L,138,139
L,139,140
L,140,141
L,141,142
L,142,143
L,143,144
L,144,145
L,145,146
L,146,147
L,147,148
L,148,149
L,149,150
L,150,151
L,151,152
L,152,153
L,153,154
! ... 131 like lines cut

!Area inside compact bone lines
!Area inside marrow lines
LSEL,S,LINE,,133,283
AL,all
LSEL,ALL

ASBA,1,2,,,KEEP

!MARROW
K,284,-19.7687,-126.2455,0
K,285,49.28779,161.6645,0
K,286,-22.7687,-123.2455,0
K,287,-24.7687,-120.2455,0
K,288,-24.7687,-117.2455,0
K,289,-24.7687,-113.2455,0
K,290,-23.7687,-108.2455,0
K,291,-21.7687,-95.2455,0
K,292,-19.7687,-84.2455,0
K,293,-14.7687,-69.2455,0
K,294,-8.7687,-46.2455,0
K,295,-5.7687,-32.2455,0
K,296,-1.7687,-12.2455,0
K,297,2.2313,1.7545,0
K,298,7.2313,20.7545,0
K,299,10.2313,34.7545,0
K,300,14.2313,46.7545,0
K,301,18.2313,58.7545,0
K,302,22.2313,73.7545,0
K,303,25.2313,89.7545,0
! ... 36 like lines cut

!MARROW LINES
L,284,286
L,286,287
L,287,288
L,288,289
L,289,290
L,290,291
L,291,292
L,292,293
L,293,294
L,294,295
L,295,296
L,296,297
L,297,298
L,298,299
L,299,300
L,300,301
L,301,302
L,302,303
L,303,304
L,304,305
! ... 36 like lines cut

!Area inside marrow lines
LSEL,S,LINE,,284,339
AL,all
LSEL,ALL

ASBA,2,1,,,KEEP

NUMCMP,AREA

! =================================================!
! MATERIAL DEFINITIONS
! =================================================! 

MP,EX,1,YOUNG_COMPACT
MP,PRXY,1,POISSON_COMPACT
MP,EX,2,YOUNG_SPONGY
MP,PRXY,2,POISSON_SPONGY
MP,EX,3,YOUNG_MARROW
MP,PRXY,3,POISSON_MARROW

! =================================================!
! ELEMENT DEFINITIONS AND MESHING
! =================================================!

!Compact
ET,1,PLANE183
MSHAPE,0,2D
TYPE,1
MAT,1
AESIZE,2,1
AMESH,2

!Spongy
ET,2,PLANE183
MSHAPE,0,2D
TYPE,2
MAT,2
AESIZE,3,2
AMESH,3

!Marrow
ET,3,PLANE183
MSHAPE,0,2D
TYPE,3
MAT,3
AESIZE,1,1
AMESH,1


! =================================================!
! DEFINE BOUNDARY CONDITIONS AND LOADS
! =================================================! 

!Kneejoint and hip joint boundary
DK,73,,,,,,UX,UY
DK,6,,,,,,UX

!Bodyweight
LSEL,S,LINE,,1,10
NSLL,S,1
*GET,tnum,NODE,0,COUNT,,,
F,ALL,FY,-WEIGHT/tnum
NSEL,ALL


FINISH	! Exit the preprocessor

! =================================================!
! SOLUTION - in solution (/SOL)
! =================================================!

/SOL	! Enter the solution module

SOLVE	! Obtain solution

FINISH	! Exit the solution module


! =================================================!
! STUDY RESULTS - in postprocessor (/POST1) 
! =================================================!
/POST1
SET,FIRST
PLDISP,2


FINISH
